LAMMPS (2 Aug 2023 - Update 2)
# electrodes with constrained total charges
# for graphene-ionic liquid supercapacitor

boundary 	p p p # slab calculation
include 	settings.mod # styles, groups, computes and fixes
# set boundary in main script because ffield is periodic
units 	real

atom_style 	full
pair_style 	lj/cut/coul/long 16
bond_style 	harmonic
angle_style 	harmonic
kspace_style 	pppm 1e-7
# kspace_modify in main script because ffield is periodic

read_data 	"data.graph-il"
Reading data file ...
  orthogonal box = (0 0 -68) to (32.2 34.4 68)
  reading atoms ...
  3776 atoms
  scanning bonds ...
  scanning angles ...
  reading bonds ...
  640 bonds
  reading angles ...
  320 angles
Finding 1-2 1-3 1-4 neighbors ...
     2 = max # of 1-2 neighbors
     1 = max # of 1-3 neighbors
     1 = max # of 1-4 neighbors
     2 = max # of special neighbors

# replicate 4 4 1 # test different sys sizes

variable 	zpos atom "z > 0"
group 		zpos variable zpos
1891 atoms in group zpos
group 		ele type 5
832 atoms in group ele
group 		top intersect ele zpos
416 atoms in group top
group 		bot subtract ele top
416 atoms in group bot
group       cation type 4
320 atoms in group cation
group       anion type 1
320 atoms in group anion

compute        den1 cation chunk/atom bin/1d z center 0.5  units box
fix            chunk1 cation ave/chunk 10 1 100 den1 density/number ave running file cat_density.txt overwrite
compute        den2 anion chunk/atom bin/1d z center 0.5 units box
fix            chunk2 anion ave/chunk 10 1 100 den2 density/number ave running file an_density.txt overwrite

dump            1 all custom 100 system.dump id type q xs ys zs ix iy iz
dump            2 top custom 5000 anode.dump id type q xs ys zs
dump            3 bot custom 5000 cathode.dump id type q xs ys zs
group 		bmi type 1 2 3
960 atoms in group bmi
group 		electrolyte type 1 2 3 4
1280 atoms in group electrolyte

fix 		nvt electrolyte nvt temp 500.0 500.0 100
fix 		shake bmi shake 1e-4 20 0 b 1 2 a 1
Finding SHAKE clusters ...
       0 = # of size 2 clusters
       0 = # of size 3 clusters
       0 = # of size 4 clusters
     320 = # of frozen angles
  find clusters CPU = 0.001 seconds
variable        time equal step
variable 	q atom q
compute 	qtop top reduce sum v_q
compute 	qbot bot reduce sum v_q
compute 	ctemp electrolyte temp
variable        qtop equal c_qtop
variable        qbot equal c_qbot

set         group top charge -0.03
Setting atom values ...
  416 settings made for charge
set         group bot charge +0.03
Setting atom values ...
  416 settings made for charge

#fix 		conq bot electrode/conq -1.0 1.979 couple top 1.0 etypes on # symm on
#variable 	dv equal f_conq[2]-f_conq[1]
# symm on and off give different electrode potentials, but identical potential difference

thermo 		50
#thermo_style 	custom step temp c_ctemp epair etotal c_qbot c_qtop f_conq[1] f_conq[2] v_dv
run 		5000
PPPM initialization ...
  G vector (1/distance) = 0.20950511
  grid = 32 32 90
  stencil order = 5
  estimated absolute RMS force accuracy = 3.5099238e-05
  estimated relative force accuracy = 1.0570031e-07
  3d grid and FFT values/proc = 147537 92160
Generated 15 of 15 mixed pair_coeff terms from geometric mixing rule
Step          Temp          E_pair         E_mol          TotEng         Press
0   0              25143008       0              25143008       45954549
Averages over the last 51 of 101 rows, steps 2500 to 5000:
Temp E_pair E_mol TotEng Press
139.41 2.51392e+07 0 2.51406e+07 4.59556e+07
Loop time of 304.93 on 1 procs for 5000 steps with 3776 atoms
